data/nem_2300bus_thermal_limits_gen_costs_hvdc_v1.m
%% MATPOWER Case Format : Version 2
function mpc = NEM
mpc.version = '2';

%%-----  Power Flow Data  -----%%
%% system MVA base
mpc.baseMVA = 100;
%% bus data
%    bus_i    type    Pd    Qd    Gs    Bs    area    Vm    Va    baseKV    zone    Vmax    Vmin
mpc.bus = [
	1	1	0.0	0.0	0.0	0.0	1	1.056829623424886	-8.977279952476998	0.55	1	1.1	0.9				
	2	1	0.0	0.0	0.0	0.0	1	1.0568506101320916	-8.977575858894927	0.55	1	1.1	0.9				
	3	3	27.214341009702498	22.9900319056034	0.0	0.0	1	1.0155600000008822	-1.439043540934142e-10	23.0	1	1.1	0.9				
	4	2	35.305539065715095	25.536955754316597	0.0	0.0	1	1.0262600000008077	1.588803403263192	23.0	1	1.1	0.9				
	5	2	36.3464705546116	25.4527938492952	0.0	0.0	1	0.9990000000006636	4.90539022138185	23.0	1	1.1	0.9				
	6	2	36.153696760668204	25.952019776483105	0.0	0.0	1	1.0025100000006752	4.630940988078049	23.0	1	1.1	0.9				
	7	1	0.0	0.0	0.0	0.0	1	1.0207790301336637	0.7936873380854174	11.0	1	1.1	0.9				
	8	1	34.3079817598438	6.892727246839408	0.0	28.232458521239447	1	1.029636867007994	20.96864875685241	22.0	1	1.1	0.9				
	10	1	0.0	0.0	0.0	0.0	1	1.029636322187869	20.96862041943449	11.0	1	1.1	0.9				
	11	1	0.0	0.0	0.0	0.0	1	1.0296362949894846	20.96861778084282	11.0	1	1.1	0.9				
	12	2	0.0	0.0	0.0	0.0	1	1.0604999999995164	14.928388508866282	330.0	1	1.1	0.9				
	13	2	0.0	0.0	0.0	0.0	1	1.0154599999998417	9.416426090630896	0.6899999999999998	1	1.1	0.9				
	14	2	0.0	0.0	0.0	0.0	1	1.0172899999998444	9.353362528474202	0.6899999999999998	1	1.1	0.9				
	15	2	0.0	0.0	0.0	0.0	1	1.0125999999998783	8.373941651475816	0.6899999999999998	1	1.1	0.9				
	16	1	0.567323553623725	0.0	0.0	-2.2564771930617287	1	1.0018381174899345	10.2815415588037	0.6899999999999998	1	1.1	0.9				
	17	1	-0.23610117125269	0.0	0.0	-3.91829091666266	1	1.0015320800829315	10.33207482353905	0.6899999999999998	1	1.1	0.9				
	18	2	32.9123161610551	24.711783958261503	0.0	0.0	1	1.0112200000000926	12.41045145354788	23.0	1	1.1	0.9				
	19	2	32.7047949975725	24.864146277261202	0.0	0.0	1	1.0183700000000653	13.05452814535401	23.0	1	1.1	0.9				
	20	2	32.937722768523706	24.8430852986128	0.0	0.0	1	1.0233200000000091	13.64244859824255	23.0	1	1.1	0.9				
	21	2	33.7906400303283	25.010466589327603	0.0	0.0	1	1.0157699999999812	14.31259158148057	23.0	1	1.1	0.9				
	22	1	-83.0623847517897	0.0	0.0	-11.7381837877338	1	0.9985824609075477	17.43380828303851	33.0	1	1.1	0.9				
	23	2	0.041755911774933284	0.0395732937566936	0.0	0.0	1	1.026690000000016	5.144119136486958	16.0	1	1.1	0.9				
	24	2	0.0	0.0	0.0	0.0	1	1.0771299999990986	11.018302557921771	0.6899999999999998	1	1.1	0.9				
	25	2	0.0	0.0	0.0	0.0	1	1.0770499999990981	11.01290645295916	0.6899999999999998	1	1.1	0.9				
	26	2	0.0	-14.681676562177001	0.0	0.0	1	1.0875899999991359	9.937250975429427	0.6899999999999998	1	1.1	0.9				
	27	1	0.0	0.0	0.0	0.0	1	1.0485275537482068	8.88228979593709	132.0	1	1.1	0.9				
	28	2	0.0	0.0	0.0	0.0	1	1.0244899999992303	10.70340308382816	132.0	1	1.1	0.9				
	29	1	0.0	0.0	0.0	0.0	1	1.0226182481800343	-0.003946260780785413	16.0	1	1.1	0.9				
	30	2	0.07874156961217518	0.07739421614632008	0.0	0.0	1	1.0191300000000325	4.706373784984359	16.0	1	1.1	0.9				
	31	2	0.0	0.0	0.0	0.0	1	0.9528199999982646	24.86836490130132	11.0	1	1.1	0.9				
	32	1	176.73390301466	-4.11325372574511	0.0	0.0	1	1.0566003811438103	-23.14241163171997	33.0	1	1.1	0.9				
	33	1	-3.33792712396276	0.0	0.0	13.0353994753305	1	0.9282436337437064	14.875080974479731	11.0	1	1.1	0.9				
	34	2	18.341554469353003	10.3636909979163	0.0	0.0	1	0.9734900000000558	13.12980784018663	22.0	1	1.1	0.9				
	35	2	17.4121562782648	10.893810214865999	0.0	0.0	1	0.9320500000000145	14.13026797802986	22.0	1	1.1	0.9				
	36	2	18.582245540429103	10.5566776532596	0.0	0.0	1	0.9755800000000123	14.19604504955022	22.0	1	1.1	0.9				
	37	2	0.0943259037151933	0.08743726937780161	0.0	0.0	1	0.9789699999983338	29.43261390478714	15.4	1	1.1	0.9				
	38	2	0.0876203157609328	0.09076399877332152	0.0	0.0	1	0.9780499999983339	29.06043145060584	15.4	1	1.1	0.9				
	39	2	0.09111050326647241	0.0927051996761467	0.0	0.0	1	0.9840699999983344	29.46882876351581	15.4	1	1.1	0.9				
	40	2	0.0894937716460321	0.0930797259162646	0.0	0.0	1	0.9818599999983345	29.682318977868132	15.4	1	1.1	0.9				
	41	2	0.09191597477369938	0.0946137851933017	0.0	0.0	1	0.9837699999983311	29.512251251851044	15.4	1	1.1	0.9				
	42	2	0.0944379383103922	0.0882814010351896	0.0	0.0	1	0.9855599999983311	29.38278188549631	15.4	1	1.1	0.9				
	43	2	31.518040437391004	25.972870391560697	0.0	0.0	1	0.9989400000003716	5.781007638305895	23.0	1	1.1	0.9				
	44	1	0.0	0.0	0.0	0.0	1	1.0269357353109256	-1.021279768640452	23.0	1	1.1	0.9				
	45	1	0.0	0.0	0.0	0.0	1	0.989968319942511	-6.42680705590938	17.5	1	1.1	0.9				
	46	1	-6.321807256489991	0.0	0.0	0.062422145700082164	1	1.0024784261968391	13.51768564508145	22.0	1	1.1	0.9				
	47	1	1.02072695429423	0.733871934417821	0.0	0.0	1	1.0243680589513333	-6.460367023172039	15.0	1	1.1	0.9				
	48	1	1.1200335927479	0.730782591217384	0.0	0.0	1	1.02435291825526	-6.464954253855753	15.0	1	1.1	0.9				
	49	1	0.968675146375224	0.592623299681395	0.0	0.0	1	1.0244362425658606	-6.460279788209045	15.0	1	1.1	0.9				
	50	1	0.9397457393940071	0.5860383047368382	0.0	0.0	1	1.0244466402973187	-6.45878562638311	15.0	1	1.1	0.9				
	51	1	-3.06059989218204	0.0	0.0	0.0	1	1.0412859377372061	6.971322240952063	0.55	1	1.1	0.9				
	52	1	-20.5648680556712	0.0	0.0	-3.910596988102419	1	1.0265702099148346	23.16550479858929	22.0	1	1.1	0.9				
	53	1	-20.355388152304997	0.0	0.0	-3.6806902014426894	1	1.0272722590769332	23.07335578409237	22.0	1	1.1	0.9				
	54	1	37.3257623166889	4.58530336711928	0.0	-4.595364754858888	1	1.0153875285431972	16.16878072030653	11.0	1	1.1	0.9				
	55	1	0.0	0.0	0.0	0.0	1	1.0686762971587203	15.07249015472151	0.55	1	1.1	0.9				
	56	2	7.19655427563423	2.41647754932139	0.0	0.0	1	0.9880100000003142	3.7997444595260004	21.0	1	1.1	0.9				
	57	2	0.0	0.0	0.0	0.0	1	1.0150199999980112	26.55554402291894	11.5	1	1.1	0.9				
	58	2	0.0	0.0	0.0	0.0	1	0.9449199999981235	32.22147552893529	11.5	1	1.1	0.9				
	59	1	0.0	0.0	0.0	0.0	1	1.0134422166415877	18.68287174311193	132.0	1	1.1	0.9				
	60	1	-14.282245254126602	0.0	0.0	-4.096644248932133	1	1.0441291959448833	14.112679816441842	12.0	1	1.1	0.9				
	61	2	0.0	0.0	0.0	401.9661514088508	1	1.0270000000013784	-11.36596408286945	330.0	1	1.1	0.9				
	62	2	0.0	0.0	0.0	0.0	1	0.9160899999978572	22.04129698999879	11.0	1	1.1	0.9				
	63	2	0.0	0.0	0.0	0.0	1	1.0414899999976572	22.76213742824785	11.0	1	1.1	0.9				
	64	2	0.0	0.0	0.0	0.0	1	1.0629799999980032	35.82441718589963	15.75	1	1.1	0.9				
	65	2	0.0	0.0	0.0	0.0	1	1.0575999999980057	36.01166468070276	15.75	1	1.1	0.9				
	66	2	0.0	0.0	0.0	0.0	1	1.063539999998005	36.00342364179156	15.75	1	1.1	0.9				
	67	2	0.0	0.0	0.0	0.0	1	1.0626299999980076	36.14345972925743	15.75	1	1.1	0.9				
	68	1	0.0	0.0	0.0	0.0	1	0.9711622200555297	20.32284773310832	12.5	1	1.1	0.9				
	69	2	0.0433923930488527	0.043749541898723696	0.0	0.0	1	0.9635399999983624	22.60603055253578	12.5	1	1.1	0.9				
	70	2	0.0448706568134017	0.0477275057820603	0.0	0.0	1	0.9702499999983616	22.99129928570131	12.5	1	1.1	0.9				
	71	1	0.0	0.0	0.0	0.0	1	0.9718826269399232	20.24984244031531	12.5	1	1.1	0.9				
	72	1	0.0	0.0	0.0	0.0	1	1.017138359155176	20.41908007855816	12.5	1	1.1	0.9				
	73	2	0.0380112225227058	0.0406420744564384	0.0	0.0	1	1.00306999999828	23.33733213330934	12.5	1	1.1	0.9				
	74	2	0.0387934326939285	0.038430588806048	0.0	0.0	1	1.0127499999982816	23.4722096654911	12.5	1	1.1	0.9				
	75	2	0.0380778377875686	0.0389150532997213	0.0	0.0	1	1.0241899999982815	23.59073494107054	12.5	1	1.1	0.9				
	76	2	26.3099001010022	14.9509423831273	0.0	0.0	1	1.0188500000008487	1.114119245169003	23.0	1	1.1	0.9				
	77	2	27.959039167828397	14.5822928520143	0.0	0.0	1	1.0095500000008435	1.244714711594707	23.0	1	1.1	0.9				
	78	1	17.944003521226342	9.016822778878133	0.0	-4.9940764243723805	1	1.02542788041576	17.80184585832935	66.0	1	1.1	0.9				
	79	2	0.0	0.0	0.0	0.0	1	1.0445900000015635	-13.73592315818436	11.0	1	1.1	0.9				
	80	2	0.0	0.0	0.0	0.0	1	1.042060000001548	-13.34310763904506	11.0	1	1.1	0.9				
	81	1	0.0	0.0	0.0	0.0	1	1.0528241558378864	-19.45868148489789	11.0	1	1.1	0.9				
	82	1	0.0	0.0	0.0	0.0	1	1.053153657841849	-19.45817671796368	11.0	1	1.1	0.9				
	83	1	0.0	0.0	0.0	0.0	1	1.081583649477113	5.345717254579498	11.5	1	1.1	0.9				
	84	1	0.0	0.0	0.0	0.0	1	1.0815836494771112	5.345717254579491	11.5	1	1.1	0.9				
	85	1	0.0	0.0	0.0	0.0	1	1.0412966199698233	-2.650600156493706	500.0	1	1.1	0.9				
	86	1	0.0	0.0	0.0	0.0	1	1.019293048648907	-4.277768925890689	330.0	1	1.1	0.9				
	87	1	0.0	0.0	0.0	0.0	1	1.047427455654175	-6.089586014839488	500.0	1	1.1	0.9				
	88	1	0.0	0.0	0.0	412.0286558941007	1	1.0448957447412697	-8.899513338954277	330.0	1	1.1	0.9				
	91	1	0.0	0.0	0.0	0.0	1	1.0258919100438	-4.308838728235784	330.0	1	1.1	0.9				
	92	1	0.0	0.0	0.0	0.0	1	1.0476213533300094	0.7743583451813953	500.0	1	1.1	0.9				
	93	1	0.0	0.0	0.0	0.0	1	1.0288334040629687	0.3986422144461632	330.0	1	1.1	0.9				
	94	1	0.0	0.0	0.0	0.0	1	1.0555223434888397	6.955676388074683	500.0	1	1.1	0.9				
	95	1	0.0	0.0	0.0	0.0	1	1.034813928084693	6.610155754468517	330.0	1	1.1	0.9				
	97	1	0.0	0.0	0.0	0.0	1	1.0217327030733752	8.460477570531758	330.0	1	1.1	0.9				
	98	1	0.0	0.0	0.0	0.0	1	1.0124518368931967	11.70038682070796	330.0	1	1.1	0.9				
	99	1	0.0	0.0	0.0	0.0	1	1.0696118248711037	11.1044747219506	330.0	1	1.1	0.9				
	100	1	0.0	0.0	0.0	0.0	1	1.024377374929828	-4.012439172679424	330.0	1	1.1	0.9				
	101	1	0.0	0.0	0.0	0.0	1	1.0688982286764925	20.82992795177304	330.0	1	1.1	0.9				
	102	1	0.0	0.0	0.0	-155.26726707816096	1	1.0362767131245694	-11.87591346681503	330.0	1	1.1	0.9				
	103	1	0.104516655383632	-1.7242746998481397	0.0	0.0	1	1.0489657900475857	13.63319065873542	132.0	1	1.1	0.9				
	104	1	0.0	0.0	0.0	-62.150755693204694	1	1.0531521422773407	25.58528512930064	330.0	1	1.1	0.9				
	105	1	0.0	0.0	0.0	0.0	1	1.0512885777753689	-14.848284445144172	330.0	1	1.1	0.9				
	106	1	0.0	0.0	0.0	0.0	1	1.036875728215395	-11.7554989414603	330.0	1	1.1	0.9				
	107	1	0.0	0.0	0.0	0.0	1	1.031637882918312	-10.12925588470406	330.0	1	1.1	0.9				
	108	1	0.0	0.0	0.0	0.0	1	1.041741295716282	22.052209785024623	330.0	1	1.1	0.9				
	109	1	0.0	0.0	0.0	0.0	1	1.0226182481800357	-0.003946260780745655	330.0	1	1.1	0.9				
	110	1	0.0	0.0	0.0	0.0	1	1.0321576277803532	6.620543953291656	330.0	1	1.1	0.9				
	111	1	0.0	0.0	0.0	-100.10944619309201	1	1.047584860016429	10.31203454452455	330.0	1	1.1	0.9				
	112	1	0.0	0.0	0.0	0.0	1	1.032314710127017	-11.76521884521535	330.0	1	1.1	0.9				
	113	1	0.0	0.0	0.0	0.0	1	1.025964178568837	22.29398066546937	330.0	1	1.1	0.9				
	114	1	0.0	0.0	0.0	0.0	1	1.0263938121238003	0.4726988178013388	330.0	1	1.1	0.9				
	115	1	0.0	0.0	0.0	0.0	1	1.0357975972550688	-8.246491260547778	330.0	1	1.1	0.9				
	116	1	0.0	0.0	0.0	0.0	1	1.0552983174432637	1.218506002492175	500.0	1	1.1	0.9				
	117	1	0.0	0.0	0.0	0.0	1	1.0381355586787646	-1.021279768640452	330.0	1	1.1	0.9				
	118	1	0.0	0.0	0.0	0.0	1	1.0248202446432104	-6.426807055909307	330.0	1	1.1	0.9				
	119	1	0.0	0.0	0.0	0.0	1	1.0224948226475856	4.978460662175444	330.0	1	1.1	0.9				
	120	1	0.0	0.0	0.0	0.0	1	1.0307221646647158	6.584062680213872	330.0	1	1.1	0.9				
	121	1	52.1446072876835	-10.4186994219702	0.0	0.0	1	1.0457788243688528	-19.46389930000411	132.0	1	1.1	0.9				
	122	1	47.0702037674924	-7.42322407301534	0.0	0.0	1	1.045682106346644	-19.40236534486947	132.0	1	1.1	0.9				
	123	1	0.771102107275277	0.5350705203771591	0.0	0.0	1	1.0467036818024364	-19.17903518095962	132.0	1	1.1	0.9				
	124	1	46.8132718256355	-6.03130423971033	0.0	0.0	1	1.0469133881908312	-19.36830718059969	132.0	1	1.1	0.9				
	126	1	0.0	0.0	0.0	0.0	1	1.010927308377204	-5.261014874612455	330.0	1	1.1	0.9				
	127	1	0.0	0.0	0.0	0.0	1	1.0298510962601373	-10.13755091142178	330.0	1	1.1	0.9				
	128	1	0.0	0.0	0.0	0.0	1	1.0414933852248218	-13.54992377193754	330.0	1	1.1	0.9				
	129	1	0.0	0.0	0.0	0.0	1	1.0147465714050727	26.5886502529894	132.0	1	1.1	0.9				
	130	1	0.0	0.0	0.0	0.0	1	1.0431480182213402	10.56586515752351	132.0	1	1.1	0.9				
	131	1	0.0	0.0	0.0	0.0	1	1.0399968300576956	-12.48436238274671	330.0	1	1.1	0.9				
	132	1	14.2949130828764	5.14730489338171	0.0	0.0	1	1.0285958942025917	18.56383733712308	132.0	1	1.1	0.9				
	133	1	0.0	0.0	0.0	-246.92635576473594	1	1.034771480601476	-11.19058337365726	330.0	1	1.1	0.9				
	135	1	0.0	0.0	0.0	0.0	1	1.0590800372762637	21.55538797031457	330.0	1	1.1	0.9				
	138	1	0.0	0.0	0.0	0.0	1	1.0544860414788229	10.35642636581861	330.0	1	1.1	0.9				
	139	1	969.0150037223428	274.39628427689956	0.0	221.55104858288502	1	1.0047895627659134	-6.117208718562539	330.0	1	1.1	0.9				
	140	1	0.0	0.0	0.0	0.0	1	1.0222163923104999	-9.554664906240859	330.0	1	1.1	0.9				
	141	1	0.0	0.0	0.0	0.0	1	1.0189536952058418	20.112161152775634	330.0	1	1.1	0.9				
	142	2	0.0	0.0	0.0	192.1560231596229	1	1.0250777860011466	-5.488875077276375	330.0	1	1.1	0.9				
	143	1	0.0	0.0	0.0	0.0	1	1.0280674964539103	-11.58035221279875	330.0	1	1.1	0.9				
	144	1	0.0	0.0	0.0	0.0	1	1.052733411552958	22.59747569897063	330.0	1	1.1	0.9				
	145	1	0.0	0.0	0.0	0.0	1	1.0367940432829892	-1.715413527701392	330.0	1	1.1	0.9				
	146	1	0.0	0.0	0.0	0.0	1	1.0062080935474937	-5.906182272295832	330.0	1	1.1	0.9				
	147	1	0.0	0.0	0.0	0.0	1	1.0067568315654	10.6986678674577	330.0	1	1.1	0.9				
	148	1	0.0	0.0	0.0	-102.09912414196896	1	1.0284116779724406	-2.014981055088598	330.0	1	1.1	0.9				
	149	1	0.0	0.0	0.0	0.0	1	1.0597865293552977	3.357201427299076	500.0	1	1.1	0.9				
	150	1	0.0	0.0	0.0	0.0	1	1.0521324527610978	2.069465416832535	330.0	1	1.1	0.9				
	151	1	0.0	0.0	0.0	0.0	1	1.0153189531149125	9.66250731252819	330.0	1	1.1	0.9				
	152	1	0.0	0.0	0.0	80.07954398542638	1	1.0258323578063713	12.87029397213267	132.0	1	1.1	0.9				
	154	1	0.0	0.0	0.0	-130.99993497598902	1	0.9662250489235306	0.508715633861644	33.0	1	1.1	0.9				
	155	1	0.0	0.0	0.0	0.0	1	1.0327391500435605	0.4997470458633272	33.0	1	1.1	0.9				
	156	1	0.216529954653187	0.40220958956959696	0.0	-98.8957157963887	1	1.0519506457673893	-18.43917719764521	132.0	1	1.1	0.9				
	157	1	0.0	0.0	0.0	24.588292440399492	1	1.0540592497775523	7.473031042478997	132.0	1	1.1	0.9				
	159	1	301.5311189719217	25.095294130560866	0.0	123.898189047351	1	1.0232384724272956	-4.945411064841417	132.0	1	1.1	0.9				
	160	1	0.0	0.0	0.0	-34.6324332985561	1	1.0263186936575068	20.9028893068318	220.0	1	1.1	0.9				
	161	1	17.99162321349137	-4.0153217847230875	0.0	38.434252901338	1	1.0824015001190455	20.02358894221748	132.0	1	1.1	0.9				
	162	1	282.1231944544455	107.2458407386237	0.0	-103.90770591329796	1	1.0508568323147438	-18.43954029020352	132.0	1	1.1	0.9				
	165	1	0.0	0.0	0.0	0.0	1	1.046582155804884	20.90758867908772	132.0	1	1.1	0.9				
	166	2	0.0	0.0	0.0	30.815467547625293	1	1.0040699999992804	9.863507771527251	132.0	1	1.1	0.9				
	170	1	0.0	0.0	0.0	0.0	1	1.0281270696248392	-0.5869373359806229	132.0	1	1.1	0.9				
	171	1	139.75602702264578	20.44950474832593	0.0	0.0	1	1.0365646198609182	-13.42856220209507	132.0	1	1.1	0.9				
	172	1	0.0	0.0	0.0	0.0	1	1.0781271737794142	-4.03635933845317	132.0	1	1.1	0.9				
	174	2	0.0	0.0	0.0	0.0	1	0.9978099999996237	6.186595908266506	33.0	1	1.1	0.9				
	175	1	0.0	0.0	0.0	0.0	1	1.053454900653084	4.256303139121247	132.0	1	1.1	0.9				
	176	1	0.0	0.0	0.0	0.0	1	1.0544186483825417	-9.14614919711142	132.0	1	1.1	0.9				
	177	1	245.2666320813816	85.02624961588181	0.0	82.45979792252179	1	1.019095661508403	-12.4707361779142	132.0	1	1.1	0.9				
	178	1	632.5183891335347	-25.520239119883648	0.0	110.23872074438299	1	1.0228567733458054	-16.61128981898583	132.0	1	1.1	0.9				
	179	1	215.91967169481802	81.55375378110216	0.0	123.99600445479204	1	1.0343018150577576	-16.41523228602024	132.0	1	1.1	0.9				
	180	1	0.0	0.0	0.0	0.0	1	1.0230002811853522	-16.09922114238406	132.0	1	1.1	0.9				
	181	1	0.0	0.0	0.0	0.0	1	1.0231899205453	-16.61427713441913	132.0	1	1.1	0.9				
	182	1	78.4661207230591	3.5030830638563297	0.0	118.62339701503501	1	1.0352964786379244	-15.129063909437871	132.0	1	1.1	0.9				
	183	1	66.05197622275733	13.340704959799485	0.0	167.431074902415	1	1.0442400764898743	-15.9368489250595	132.0	1	1.1	0.9				
	184	1	24.109205815278102	6.27467704216484	0.0	160.632906526327	1	1.0436910880563068	-15.733025097866408	132.0	1	1.1	0.9				
	185	1	103.77583088981969	19.8401998823269	0.0	0.0	1	1.0283391919849387	8.131920662220686	132.0	1	1.1	0.9				
	186	1	0.0	0.0	0.0	0.0	1	1.0624417900467933	-8.251555429025876	132.0	1	1.1	0.9				
	188	1	41.184766744947	17.5264675299108	0.0	0.0	1	1.0435518438562257	-11.73648420230902	132.0	1	1.1	0.9				
	189	1	8.196319011532239	-0.7174650966227059	0.0	0.0	1	1.054876457159596	-8.678429239879797	132.0	1	1.1	0.9				
	191	1	158.3305676122174	30.76314024858066	0.0	59.59430044703179	1	1.0375730896435036	-15.4978901908185	132.0	1	1.1	0.9				
	192	1	0.0	0.0	0.0	78.97053647786379	1	1.053493328624043	24.020023125565075	132.0	1	1.1	0.9				
	193	1	18.255845924162298	8.83805388663374	0.0	0.0	1	1.076083939105193	-4.381686630838623	132.0	1	1.1	0.9				
	194	1	80.430232870505	30.824093108362604	0.0	0.0	1	1.049605311312625	-6.831170659545386	132.0	1	1.1	0.9				
	195	1	0.0	0.0	0.0	0.0	1	1.0526506377315819	-11.20293169611148	132.0	1	1.1	0.9				
	196	1	68.94908565931951	30.18862330509154	0.0	0.0	1	1.044977491001384	-9.847637440605078	132.0	1	1.1	0.9				
	197	1	0.0	0.0	0.0	0.0	1	1.0286022926971743	9.183502503579549	132.0	1	1.1	0.9				
	198	1	0.0	0.0	0.0	19.3074304163456	1	1.050322532483244	-4.9645850279442	132.0	1	1.1	0.9				
	199	1	0.0	0.0	0.0	0.0	1	1.0399560701958817	11.08251172842113	132.0	1	1.1	0.9				
	200	1	0.0	0.0	0.0	0.0	1	1.046546565943881	-8.843206218099784	132.0	1	1.1	0.9				
	201	1	0.0	0.0	0.0	0.0	1	1.043067098655384	11.52263956430804	132.0	1	1.1	0.9				
	202	1	34.19279275183901	2.2713786386044688	0.0	6.207856105919931	1	1.0458618820133856	9.752722624191225	66.0	1	1.1	0.9				
	204	1	0.0	0.0	0.0	0.0	1	1.049850634187275	21.10920861467919	220.0	1	1.1	0.9				
	205	1	0.0	0.0	0.0	0.0	1	1.0463731553350188	-19.08599005971061	132.0	1	1.1	0.9				
	208	1	27.6265726334902	14.479561446035502	0.0	0.0	1	1.0341230613104333	-16.11328844993065	132.0	1	1.1	0.9				
	210	1	17.0287468016645	1.3887771329371301	0.0	-25.30242467997598	1	1.039497299733625	20.68804724613582	220.0	1	1.1	0.9				
	211	2	85.8045954265578	0.0	0.0	0.0	1	1.037559999998999	13.19030203356221	110.0	1	1.1	0.9				
	212	1	63.495530594278094	16.168201305059952	0.0	0.0	1	1.0518313348879076	-18.12311519920622	132.0	1	1.1	0.9				
	214	1	0.0	0.0	0.0	154.11611622571905	1	1.0519563718753107	-18.43959031045461	132.0	1	1.1	0.9				
	215	1	0.0	0.0	0.0	-54.22644980493927	1	1.0293992094601976	21.8066612652898	220.0	1	1.1	0.9				
	216	1	12.1669812024641	4.18680869391607	0.0	0.0	1	1.0285329399192638	-8.56924783837962	132.0	1	1.1	0.9				
	217	1	7.503794180498131	1.24192596953921	0.0	0.0	1	1.0361221281021893	-14.50171285511423	132.0	1	1.1	0.9				
	218	1	0.0	0.0	0.0	0.0	1	1.051543035503309	16.01624463786756	132.0	1	1.1	0.9				
	219	1	2.1835738987048168	0.02881484689265501	0.0	0.0	1	1.0199411472877478	4.347970268025256	132.0	1	1.1	0.9				
	221	1	82.0316256063125	22.365053668189617	0.0	12.365361885912698	1	1.0294452597776704	-8.457462418437075	132.0	1	1.1	0.9				
	222	1	6.327268349225909	3.25207837965991	0.0	0.0	1	1.043676916824275	21.56790861139781	132.0	1	1.1	0.9				
	223	1	15.1065737890452	6.2447493016626705	0.0	0.0	1	1.0368372545868585	-14.614920292591059	132.0	1	1.1	0.9				
	225	1	19.67279429336503	5.267365830491629	0.0	0.0	1	1.0383563155346258	-16.111241662354775	132.0	1	1.1	0.9				
...
];

%% generator data
%    bus    Pg    Qg    Qmax    Qmin    Vg    mBase    status    Pmax    Pmin    Pc1    Pc2    Qc1min    Qc1max    Qc2min    Qc2max    ramp_agc    ramp_10    ramp_30    ramp_q    apf
mpc.gen = [
	3	431.89334232400006	-24.521463397999998	370.0	-240.0	1.01556	848.605419222452	1	850.0	0.0															
	4	624.40737834601	64.8168883589584	450.0	-190.0	1.02626	911.2691769853241	1	919.9999999999999	0.0															
	5	650.401460230983	17.1883693068953	390.0	-260.0	0.999	914.521020424575	1	919.9999999999999	0.0															
	6	631.7539076734402	37.213374197097096	450.0	-190.0	1.00251	915.047054038756	1	919.9999999999999	0.0															
	13	30.2265357711347	2.1328312649857297	10.0	-10.0	1.01546	41.1012975615542	1	50.0	0.0															
	14	32.1221972278725	3.847882429963349	10.0	-10.0	1.01729	45.4628463133704	1	50.0	0.0															
	15	19.277781191996898	0.46368514422499607	10.0	-10.0	1.0126	28.477100057434303	1	30.0	0.0															
	18	565.935071064465	76.76821743240511	440.00000000000006	-280.0	1.01122	853.1517461942509	1	860.0	0.0															
	19	664.1802905846021	116.850947170548	430.0	-280.0	1.01837	828.587737327442	1	830.0000000000001	0.0															
	20	630.779430353494	123.09915439605301	430.0	-270.0	1.02332	824.9557847308	1	830.0000000000001	0.0															
	21	660.810311423638	92.7982150761187	430.0	-280.0	1.01577	815.543500367366	1	819.9999999999999	0.0															
	23	81.9568333770882	3.7421545503518496	50.0	-30.0	1.02669	100.1029132	1	110.00000000000001	0.0															
	30	77.3267838781388	-3.50851274594665	50.0	-30.0	1.01913	99.5320069049927	1	100.0	0.0															
	31	55.970990066540104	-7.30109434132907	30.0	-30.0	0.95282	90.5889255829901	1	100.0	0.0															
	34	405.05126933506904	36.0377353830287	210.0	-110.00000000000001	0.97349	643.693602205161	1	650.0	0.0															
	35	407.77499201904703	-93.8426247742008	220.00000000000003	-120.0	0.93205	645.28666725168	1	650.0	0.0															
	36	426.5161774322531	42.1066275972186	210.0	-100.0	0.97558	628.9849849482072	1	630.0	0.0															
	37	246.36371654223402	1.1105895665460301	90.0	-90.0	0.97897	343.073364149896	1	350.0	0.0															
	38	246.53546941532	-1.1678426247423999	90.0	-90.0	0.97805	338.426626157714	1	340.0	0.0															
	39	248.465284474285	13.4766408302221	90.0	-90.0	0.98407	341.42365312634496	1	350.0	0.0															
	40	256.48333277373905	9.456149262328069	90.0	-90.0	0.98186	336.309318444924	1	340.0	0.0															
	41	245.36307114282198	13.794420346358402	90.0	-90.0	0.98377	333.510404178291	1	340.0	0.0															
	42	242.463117731816	17.971023596443196	90.0	-90.0	0.98556	340.135576679022	1	350.0	0.0															
	43	641.205869383868	-79.2208985881729	420.0	-180.0	0.99894	832.440999925509	1	840.0	0.0															
	56	409.952588354057	8.71409053639974	280.0	-130.0	0.98801	546.171568101272	1	550.0	0.0															
	57	0.0	3.29022754875435	20.0	-20.0	1.01502	46.1062790306169	1	50.0	0.0															
	58	30.3989596087625	-9.75506422682516	20.0	-20.0	0.94492	46.5332684993628	1	50.0	0.0															
	62	22.5934707990981	11.096846189928302	20.0	-30.0	0.91609	30.5123773106886	1	40.0	0.0															
	63	20.5592082879526	-0.16138491215324	20.0	-20.0	1.04149	29.6002670221357	1	30.0	0.0															
	64	151.99882825729298	-1.97199990038797	100.0	-50.0	1.06298	210.894545504451	1	220.00000000000003	0.0															
	65	147.744403827981	-8.13028176963227	100.0	-50.0	1.0576	207.096134014428	1	210.0	0.0															
	66	157.04825788377198	-1.2465739881142999	100.0	-50.0	1.06354	209.43448703438	1	210.0	0.0															
	67	150.91881079843	-2.21712468539341	100.0	-50.0	1.06263	210.867295503616	1	220.00000000000003	0.0															
	69	45.5453139887114	-11.7293045770481	30.0	-30.0	0.96354	108.81484992434301	1	110.00000000000001	0.0															
	70	49.67218813880051	-3.45493803172465	30.0	-30.0	0.97025	110.332978322869	1	120.0	0.0															
	73	43.2331766436034	-13.684934688052799	40.0	-30.0	1.00307	96.48768505742771	1	100.0	0.0															
	74	41.671530701732294	-6.34282647466175	40.0	-40.0	1.01275	98.0252477621194	1	100.0	0.0															
	75	43.07847587842049	2.7352948936936903	40.0	-40.0	1.02419	96.5074638390634	1	100.0	0.0															
	76	601.9228605073649	68.4206095867701	409.99999999999994	-160.0	1.01885	835.11956340652	1	840.0	0.0															
	77	594.185006502323	28.983092414969803	409.99999999999994	-160.0	1.00955	829.493444249593	1	830.0000000000001	0.0															
	79	33.6224140786135	-1.7698750120983504	10.0	-20.0	1.04459	52.3175148501992	1	60.0	0.0															
	80	34.037052000734604	-2.4237874515906	10.0	-20.0	1.04206	51.9722352538258	1	60.0	0.0															
	647	64.58350418747361	0.37462820608019803	40.0	-30.0	0.97085	86.4684665810317	1	90.0	0.0															
	648	58.69554476671941	0.366359938384267	40.0	-40.0	0.9712	90.0339754913002	1	100.0	0.0															
	654	50.990623193234306	-3.24980309639736	10.0	-10.0	1.06431	98.9588547302624	1	100.0	0.0															
	655	112.97404027993099	-3.9362810441209	10.0	-10.0	1.05968	179.468505843356	1	180.0	0.0															
	656	12.718660331978601	3.0661311341823496	10.0	0.0	0.97713	23.38719214	1	30.0	0.0															
	658	165.978187592202	0.343592807862908	80.0	-50.0	0.97456	189.47538619999997	1	190.0	0.0															
	659	51.46347397016579	-11.530151942175001	40.0	-30.0	1.00988	70.2652235693065	1	80.0	0.0															
	660	53.7882164716721	-9.82455924073085	40.0	-30.0	1.0122	71.0795632928889	1	80.0	0.0															
	665	115.27907018156999	-15.398137622243501	50.0	-50.0	0.95996	152.586644802825	1	160.0	0.0															
	668	69.7121333398338	-6.70421066225446	50.0	-50.0	0.96635	108.100446894949	1	110.00000000000001	0.0															
	672	65.804614318345	-0.900903784301877	50.0	-50.0	0.97242	110.470307527771	1	120.0	0.0															
	674	69.5386755602799	-9.84916305486169	50.0	-50.0	0.96361	108.17915012921699	1	110.00000000000001	0.0															
	680	71.3839554087347	2.32638627378177	40.0	-40.0	0.95738	107.325694307219	1	110.00000000000001	0.0															
	681	72.45267330743368	-12.0128617628943	50.0	-40.0	0.93803	107.571180567611	1	110.00000000000001	0.0															
	682	71.4069515075775	-4.6704606956616	40.0	-40.0	0.94763	108.142809283454	1	110.00000000000001	0.0															
	684	136.046296661597	-7.368156470804339	110.00000000000001	-40.0	0.98898	201.368655754533	1	210.0	0.0															
	685	143.32652905182	-2.03017769778478	110.00000000000001	-40.0	0.99603	201.766158744693	1	210.0	0.0															
	687	346.95005454379395	-36.692059481947396	330.0	-210.0	1.00618	630.7525659587229	1	640.0	0.0															
	688	545.601412348538	6.578139153325649	310.0	-200.0	1.01171	692.4764770461251	1	700.0	0.0															
	689	526.740899209748	-74.9163160444217	340.0	-110.00000000000001	0.9903	743.727576350409	1	750.0	0.0															
	690	511.886080085132	55.344790299059795	330.0	-110.00000000000001	0.99891	651.18307242021	1	660.0	0.0															
	691	529.759362199972	47.88466473868031	330.0	-110.00000000000001	0.99686	647.149878913164	1	650.0	0.0															
	693	90.0189063795386	4.446300647875949	10.0	-10.0	1.06524	115.622949829081	1	120.0	0.0															
	694	51.7755913180758	9.89028119585291	20.0	-30.0	1.07291	69.6506796327507	1	70.0	0.0															
	695	27.502320582569702	7.64712922532787	10.0	-10.0	1.07773	46.581592120633	1	50.0	0.0															
	696	50.68418794423341	9.82985949239228	20.0	-20.0	1.07461	114.864380666002	1	120.0	0.0															
	697	30.970484672293104	6.60865617792485	10.0	-10.0	1.07694	73.23516054158162	1	80.0	0.0															
	698	43.3489842760144	8.974411675248342	20.0	-30.0	1.08353	113.018319971292	1	120.0	0.0															
	699	50.769790687559	-0.870072425790271	20.0	-20.0	0.97517	100.974593	1	110.00000000000001	0.0															
	700	46.9121250839084	-0.8867070204496379	20.0	-20.0	0.97542	100.3645848	1	110.00000000000001	0.0															
	701	49.47508432327339	-0.909071200627182	20.0	-20.0	0.97015	100.148673	1	110.00000000000001	0.0															
	702	259.780769472675	29.380438943110498	130.0	-70.0	0.99413	352.29798341787	1	360.0	0.0															
	703	247.87455000916	16.7708194425677	130.0	-70.0	0.989	353.577216341277	1	360.0	0.0															
	708	31.694694625116902	-3.30541775477491	30.0	-20.0	0.99081	51.6119330540299	1	60.0	0.0															
	712	473.373842322757	45.6580550539587	260.0	-170.0	0.96625	626.956900197733	1	630.0	0.0															
	729	28.8376042157381	-3.44932537813294	20.0	-20.0	0.97029	100.8087346	1	110.00000000000001	0.0															
	730	348.993836114038	-78.07564414404922	190.0	-120.0	0.99185	476.643849198753	1	480.0	0.0															
	731	315.80497244537196	-44.2295903584657	190.0	-120.0	0.97286	413.478915313189	1	420.0	0.0															
	732	326.010094955155	13.7888998626748	200.0	-150.0	0.99223	481.327456929814	1	490.00000000000006	0.0															
	733	384.30129750208005	11.433909835405599	200.0	-150.0	0.98956	475.496667556395	1	480.0	0.0															
	953	34.37087262522778	1.0014128042542398	20.0	-20.0	1.02644	47.1338866906008	1	50.0	0.0															
	954	32.5579225848377	0.6666875720855779	20.0	-20.0	1.02602	46.1283384356648	1	50.0	0.0															
	955	34.989074655062	0.8944543812100769	20.0	-20.0	1.02719	53.539829139953895	1	60.0	0.0															
	956	33.0022717441131	0.408944916197751	20.0	-20.0	1.02592	66.5378691187571	1	70.0	0.0															
	1136	38.15006813653801	-1.78708623269442	30.0	-20.0	0.99783	56.4829927750938	1	60.0	0.0															
	1137	54.78896249383889	0.188969746815553	40.0	-20.0	1.0006	70.4010887629353	1	80.0	0.0															
	1138	37.3852416237806	-2.2534103836764596	50.0	-20.0	0.97188	55.8495727342218	1	60.0	0.0															
	1246	158.62248344307702	10.879602374576299	20.0	-20.0	1.05379	240.12185123283402	1	250.0	0.0															
	1274	672.011629407089	11.8418634473528	390.0	-220.00000000000003	1.07483	989.914190588519	1	990.0	0.0															
	1184	32.325133014311604	3.76301686895667	20.0	-20.0	1.0021652453554195	47.830978430458394	1	50.0	0.0															
	1394	233.79768106916902	15.3889585213543	150.0	-40.0	1.00238	327.941066311374	1	330.0	0.0															
	1395	228.99522333410803	18.305990717556302	150.0	-50.0	1.01725	328.221132472344	1	330.0	0.0															
	1396	181.826398928217	2.92992144144773	150.0	-70.0	1.0801	333.52684475354897	1	340.0	0.0															
	1397	193.42773506570302	20.8648841696903	150.0	-60.0	1.07699	335.174992911071	1	340.0	0.0															
	1398	143.62341807961803	8.5770152216617	150.0	-90.0	1.01396	323.952838555873	1	330.0	0.0															
	1399	252.81525112172497	20.5288921560526	150.0	-80.0	1.01738	321.767278076075	1	330.0	0.0															
	1400	339.36660236744706	9.45069326332528	180.0	-100.0	1.01525	422.530060780491	1	430.0	0.0															
	1401	328.650323317071	1.83437086554319	190.0	-100.0	1.01123	422.44099449906497	1	430.0	0.0															
	1402	333.605957972587	3.30725365806478	190.0	-90.0	1.01182	416.57544194585597	1	420.0	0.0															
	1403	352.540245030636	28.1103395883693	190.0	-100.0	1.01054	411.61222137440905	1	420.0	0.0															
	1407	291.08311794626997	-1.2139723646659397	190.0	-110.00000000000001	1.01726	428.869098612061	1	430.0	0.0															
	1408	337.08405474398	2.37235024599703	190.0	-110.00000000000001	1.01886	413.432336428249	1	420.0	0.0															
	1411	97.7013988349731	4.29467949318355	70.0	-50.0	1.01934	158.354711054701	1	160.0	0.0															
	1412	99.9689406776247	1.1591755747586	70.0	-50.0	1.01637	157.83937821052	1	160.0	0.0															
	1413	107.51995301137498	-6.630803831098969	70.0	-50.0	1.009	153.609530652668	1	160.0	0.0															
	1414	254.35082605878102	114.02582900406999	160.0	-90.0	1.06955	375.605614145869	1	380.0	0.0															
	1415	133.617273394639	1.6690695347473001	90.0	-60.0	0.96738	209.356691142824	1	210.0	0.0															
	1416	167.280394055444	3.2157747441737397	90.0	-60.0	0.96634	205.18749745981802	1	210.0	0.0															
	1419	392.37162271625607	15.8635004029665	229.99999999999997	-120.0	0.98831	628.052562262723	1	630.0	0.0															
	1420	389.17365927410503	16.542018985211897	220.00000000000003	-120.0	0.98849	638.170104924729	1	640.0	0.0															
	1421	446.095845639464	33.8465337004101	260.0	-210.0	0.97748	671.132690536673	1	680.0	0.0															
	1425	0.0	0.124195797505276	20.0	-20.0	1.01974	35.3824854665436	1	40.0	0.0															
	1426	26.060170449972205	-0.192852384490659	20.0	-20.0	1.02374	35.1063570457092	1	40.0	0.0															
	1429	0.0	2.49148080884786	20.0	-10.0	0.94245	24.0841503046104	1	30.0	0.0															
	1430	18.586411690213502	1.8555040984759998	20.0	-10.0	0.9398	24.7130107383127	1	30.0	0.0															
	1431	18.792232497129604	2.31586751971524	20.0	-10.0	0.94267	23.6974350718665	1	30.0	0.0															
	1432	0.0	0.570948067357205	20.0	-10.0	0.93537	24.5818638734054	1	30.0	0.0															
	1433	0.0958614002307877	0.777090317195049	10.0	-10.0	1.01518	8.7651425538864	1	10.0	0.0															
	1437	149.13769483177	-11.938774312788402	90.0	-70.0	1.00347	195.96899449389898	1	200.0	0.0															
	1438	78.57012764308452	7.65819148109229	50.0	-40.0	0.92011	105.795435098372	1	110.00000000000001	0.0															
	1439	122.659723240664	-4.114679432228209	80.0	-50.0	1.00491	189.74077837402	1	190.0	0.0															
	1441	28.5315465193212	-5.97646587355519	20.0	-20.0	0.99805	34.7002429670887	1	40.0	0.0															
	1499	151.481625780188	-3.1803239799808702	90.0	-60.0	0.98699	223.21536341426	1	229.99999999999997	0.0															
	1500	162.32070663892702	-6.57704077966753	100.0	-50.0	0.98381	230.990713269683	1	240.0	0.0															
	1501	134.162182604531	10.3741542792809	90.0	-60.0	0.99662	225.23718779557402	1	229.99999999999997	0.0															
	1558	333.83098638962196	18.201650020846603	190.0	-90.0	1.0065	416.378375744331	1	420.0	0.0															
	1559	331.572555586178	14.097260140581	190.0	-90.0	1.00423	426.8220308	1	430.0	0.0															
	1560	136.302122333584	-16.7380826868276	150.0	-130.0	0.99478	423.626371387602	1	430.0	0.0															
	1561	349.539415874761	9.086868038214742	190.0	-90.0	1.00248	515.843401	1	520.0	0.0															
	1628	367.584851894179	41.0305055378158	229.99999999999997	-180.0	1.00366	579.8661901449091	1	580.0	0.0															
	1629	364.29128839322004	48.745432587144	229.99999999999997	-190.0	1.0051	566.034920721082	1	570.0	0.0															
	1636	27.4967476991704	-0.197728151173517	10.0	-10.0	0.99352	36.2839481079485	1	40.0	0.0															
	1640	80.8969085377662	4.976529913062599	20.0	-30.0	0.99873	121.983711870527	1	130.0	0.0															
	1641	17.264698250152	0.655523609431461	10.0	-10.0	0.9941	21.6044311194727	1	30.0	0.0															
	1659	0.0	3.57525504164393	30.0	-10.0	0.98064	36.2619373	1	40.0	0.0															
	1660	0.0	3.75328538779309	30.0	-10.0	0.98165	37.22684	1	40.0	0.0															
	1661	0.0	0.258818292321265	30.0	-10.0	0.97347	36.524171100000004	1	40.0	0.0															
	1662	0.0	4.23996887961002	30.0	-10.0	0.98277	37.0209491	1	40.0	0.0															
	1665	0.0	1.9322701630242196	30.0	-10.0	0.97606	37.2833587994021	1	40.0	0.0															
	1666	0.0	1.952267824	30.0	-10.0	0.96603	37.528516240641	1	40.0	0.0															
	1667	0.0	3.3381552571319	30.0	-10.0	0.9779	36.3901201120326	1	40.0	0.0															
	1668	0.0	2.9525197255446596	30.0	-10.0	0.97693	36.1408798766029	1	40.0	0.0															
	1683	70.7750319602899	0.0060748899931088104	10.0	-20.0	1.09411	89.9570863413974	1	90.0	0.0															
	1684	127.264972509581	7.903512925389969	90.0	-80.0	0.99553	198.828031233628	1	200.0	0.0															
	1685	135.210093454782	11.477315202595099	90.0	-80.0	0.99759	194.91053826953302	1	200.0	0.0															
	1686	137.62957877398497	9.789118596352642	90.0	-80.0	0.99607	203.925937385531	1	210.0	0.0															
	1690	38.4946844491548	16.7631166103504	70.0	0.0	1.00101	162.35489527462101	1	170.0	0.0															
	1691	37.3084137147125	11.7401205939442	70.0	0.0	0.99526	159.27815700299098	1	160.0	0.0															
	1692	38.770804742195004	18.323136900162	70.0	0.0	1.00174	159.933895852882	1	160.0	0.0															
	1693	55.8750720689865	12.2027521266136	110.00000000000001	-50.0	1.00541	266.94065888878	1	270.0	0.0															
	1694	61.3134457642919	19.0100216837332	110.00000000000001	-50.0	1.01184	272.704311920097	1	280.0	0.0															
	1695	58.176223566194906	15.919317246771	110.00000000000001	-50.0	1.00877	262.876889418112	1	270.0	0.0															
	1696	78.7966765485445	5.715587193107	70.0	-40.0	1.01738	175.50502469390602	1	180.0	0.0															
	1697	49.6087914977608	5.56327793701654	40.0	-20.0	1.01721	88.5158615344204	1	90.0	0.0															
	1699	38.6113984149723	-1.44746811458711	30.0	-20.0	1.0036	50.093021374605605	1	60.0	0.0															
	1705	22.8188918386586	-7.02094158437103	10.0	-10.0	1.0024	34.96740921	1	40.0	0.0															
	1706	17.313522312438597	-4.97280344702303	10.0	-10.0	1.00267	100.7653224	1	110.00000000000001	0.0															
	1708	63.2268506484948	6.521236869879629	20.0	-30.0	1.01253	77.61118044	1	80.0	0.0															
	1709	93.2166602577516	-26.2550978837705	40.0	-40.0	0.96231	109.9329537	1	110.00000000000001	0.0															
	1710	38.3189882633566	-2.3943805510195904	10.0	-10.0	0.98213	50.331527630000004	1	60.0	0.0															
	2114	100.949965172718	15.8580971790647	110.00000000000001	-90.0	0.98803	147.69696593489502	1	150.0	0.0															
	2115	101.98801294916	11.2237937533833	120.0	-110.00000000000001	0.98282	147.170128862932	1	150.0	0.0															
	2116	73.44618478614161	11.7072726332725	60.0	-40.0	0.9882	99.82682290775702	1	100.0	0.0															
	2117	47.216573469236	1.2136413577921699	20.0	-20.0	1.05511	59.56099006	1	60.0	0.0															
	2118	0.0	-0.006768525156425311	90.0	-80.0	0.98159	123.24446895776799	1	130.0	0.0															
	2119	2.05432535428554	-3.6955045059300002	20.0	-20.0	0.94727	37.868305058335	1	40.0	0.0															
	2123	49.579877537453484	-7.53504049162455	50.0	-30.0	0.99307	72.60313276841859	1	80.0	0.0															
	2124	137.396424963428	23.1323326218313	120.0	-40.0	1.05574	192.64760894081599	1	200.0	0.0															
	2125	64.71147344283762	8.644864607815817	70.0	-20.0	1.05271	96.0025555250328	1	100.0	0.0															
	2126	9.82450783043848	0.050819844169588804	20.0	-10.0	1.05495	16.4278021572973	1	20.0	0.0															
	2127	34.9319525974112	0.009933722652494908	20.0	-20.0	1.04821	40.33056631	1	50.0	0.0															
	2128	32.3089076933498	0.9419516572624909	20.0	-20.0	1.05035	40.0795192	1	50.0	0.0															
	2129	24.963966136035697	0.239045050738007	20.0	-10.0	1.00571	33.6463986921869	1	40.0	0.0															
	2130	24.074777174613402	0.46368007554411894	20.0	-10.0	1.0064	33.3273031253414	1	40.0	0.0															
	2131	24.1970479211855	-0.379025940144062	20.0	-10.0	1.00365	34.233340868547096	1	40.0	0.0															
	2132	28.4679129616367	10.404304921856601	30.0	-10.0	1.03199	37.7499579498544	1	40.0	0.0															
	2133	34.3623818564035	-10.1806803593985	40.0	-20.0	0.96138	53.9771218854003	1	60.0	0.0															
	2134	105.10400928355598	3.30291061631516	70.0	-50.0	0.95645	169.174009550363	1	170.0	0.0															
	2135	104.805398459447	3.11307038174029	80.0	-70.0	0.9564	175.344738017768	1	180.0	0.0															
	2136	85.445430155	-7.1366510739999995	80.0	-60.0	0.9492	168.12110569328098	1	170.0	0.0															
	2138	26.2199891117512	-0.79302688851878	40.0	-30.0	1.02356	33.7659113864647	1	40.0	0.0															
	2139	15.9424347942778	-4.483969936649319	20.0	-10.0	1.01721	36.76534479	1	40.0	0.0															
	2140	53.38467952529129	2.89706152168536	70.0	-50.0	0.98842	67.9893259308301	1	70.0	0.0															
	2142	53.8733716477824	5.237919695317279	70.0	-40.0	0.98837	68.36997707287081	1	70.0	0.0															
	2143	55.89335614416999	4.376945288409251	70.0	-40.0	0.98685	66.6358637739904	1	70.0	0.0															
	2144	57.6238744085221	6.15992598070428	70.0	-40.0	0.98994	67.2894188493956	1	70.0	0.0															
	2148	7.435417173533231	-0.30898741889148995	10.0	-20.0	1.07274	83.72531062298448	1	90.0	0.0															
	2329	45.9946811998802	1.32156310736672	30.0	-20.0	0.98622	65.7624427797273	1	70.0	0.0															
	2330	0.0	1.59340415728837	20.0	-10.0	0.98727	36.1447293923702	1	40.0	0.0															
	2331	26.4788677188798	-4.81024136099475	20.0	-20.0	0.98153	32.9465583476471	1	40.0	0.0															
	2332	28.290144359801197	3.03866334651271	10.0	-20.0	1.01403	34.046855572122205	1	40.0	0.0															
	2333	13.345418793149303	-0.167070114086708	10.0	-10.0	1.00599	16.3866927560885	1	20.0	0.0															
	2334	21.9071191165335	-1.67227254103906	20.0	-10.0	0.99813	32.5552539895289	1	40.0	0.0															
	2335	21.9217522649333	-0.147830591569655	20.0	-10.0	1.00408	31.920388778904503	1	40.0	0.0															
	12	0.0	-21.531810070351803	320.0	-150.0	1.0605	1.08747929753736	1	110.00000000000001	0.0															
	24	38.3974242998332	0.0	0.0	0.0	1.07713	0.7938849320478039	1	80.0	0.0															
	25	33.235892587486596	0.0	0.0	0.0	1.07705	0.7164935316257183	1	80.0	0.0															
	26	20.9660063255453	0.71839715225622	10.0	-20.0	1.08759	0.500407203184462	1	60.0	0.0															
...
];

%% branch data
%    f_bus    t_bus    r    x    b    rateA    rateB    rateC    ratio    angle    status    angmin    angmax
mpc.branch = [
	28	292	0.0213946048670181	0.04942146980714439	0.012801024095775597	129.0	129.0	129.0	0	0	1	-59.99999999999999	59.99999999999999								
	28	350	0.020236665886361197	0.050316143305972186	0.10562471664845893	135.0	135.0	135.0	0	0	1	-59.99999999999999	59.99999999999999								
	52	8	0.026853445793652002	0.19165742354521298	5.195117468480018e-5	43.0	43.0	43.0	0	0	1	-59.99999999999999	59.99999999999999								
	53	8	0.026984079889560107	0.185702086980017	5.17387384688482e-5	42.0	42.0	42.0	0	0	1	-59.99999999999999	59.99999999999999								
	59	260	0.011122782782912299	0.0297112037291843	0.006220453130174425	141.0	141.0	141.0	0	0	1	-59.99999999999999	59.99999999999999								
	59	267	0.045772095961356514	0.120590632657148	0.025792474726494402	140.0	140.0	140.0	0	0	1	-59.99999999999999	59.99999999999999								
	59	304	0.006779413947917152	0.018607729760026597	0.004025052771484478	143.0	143.0	143.0	0	0	1	-59.99999999999999	59.99999999999999								
	85	87	0.0011389550104285596	0.01393588748747199	1.6833172193448998	1342.0	1342.0	1342.0	0	0	1	-59.99999999999999	59.99999999999999								
	85	87	0.0011225049821915992	0.013771688338268497	1.6954215021408197	1344.0	1344.0	1344.0	0	0	1	-59.99999999999999	59.99999999999999								
	86	126	0.0006403316210620108	0.0064468902751826694	0.080071637497656	787.0	787.0	787.0	0	0	1	-59.99999999999999	59.99999999999999								
	86	126	0.000620334336382803	0.006148481834081931	0.08240736240510083	779.0	779.0	779.0	0	0	1	-59.99999999999999	59.99999999999999								
	86	142	0.0008590316504566002	0.008691190724875782	0.112796315229684	789.0	789.0	789.0	0	0	1	-59.99999999999999	59.99999999999999								
	86	143	0.0031186025418690404	0.03052345278941931	0.45626901837147793	773.0	773.0	773.0	0	0	1	-59.99999999999999	59.99999999999999								
	88	115	0.0006390014028278651	0.0064548685555730016	0.09401233060830509	788.0	788.0	788.0	0	0	1	-59.99999999999999	59.99999999999999								
	88	131	0.0014358749276801	0.014644579098475205	0.18420688904757598	793.0	793.0	793.0	0	0	1	-59.99999999999999	59.99999999999999								
	88	133	0.0006980898858401917	0.006846981908912769	0.09338147855802613	774.0	774.0	774.0	0	0	1	-59.99999999999999	59.99999999999999								
	12	99	0.00549684407743448	0.04001467715759991	0.5277011763906659	646.0	646.0	646.0	0	0	1	-59.99999999999999	59.99999999999999								
	12	104	0.0036628589148653694	0.046574779405701004	0.7304052178330444	907.0	907.0	907.0	0	0	1	-59.99999999999999	59.99999999999999								
	12	135	0.0024404891880895	0.029288513049949005	0.47137858199290905	875.0	875.0	875.0	0	0	1	-59.99999999999999	59.99999999999999								
	12	138	0.00411569981152844	0.0332833799581951	0.405787904264694	689.0	689.0	689.0	0	0	1	-59.99999999999999	59.99999999999999								
	12	138	0.005464298468891071	0.035343942727401906	0.43209820210204875	601.0	601.0	601.0	0	0	1	-59.99999999999999	59.99999999999999								
	91	100	0.00032143239948153506	0.0034259883954422506	0.039614513562890204	814.0	814.0	814.0	0	0	1	-59.99999999999999	59.99999999999999								
	91	114	0.0029789123197607697	0.0213626300034765	0.2681391625330549	640.0	640.0	640.0	0	0	1	-59.99999999999999	59.99999999999999								
	91	115	0.0011140258456952897	0.0129505473830168	0.14802050571879896	859.0	859.0	859.0	0	0	1	-59.99999999999999	59.99999999999999								
	92	116	0.0010885510705970199	0.0147748298170697	1.7006090545761405	1429.0	1429.0	1429.0	0	0	1	-59.99999999999999	59.99999999999999								
	92	116	0.0011106263382062301	0.014144395822631203	1.6346730551440307	1375.0	1375.0	1375.0	0	0	1	-59.99999999999999	59.99999999999999								
	93	114	0.0003592095476724209	0.00485193630699255	0.09552678346910695	940.0	940.0	940.0	0	0	1	-59.99999999999999	59.99999999999999								
	93	114	0.00036659299122914716	0.004587482080457733	0.09496649899752864	898.0	898.0	898.0	0	0	1	-59.99999999999999	59.99999999999999								
	93	119	0.00239067232144671	0.017843493603628604	0.21502937305927303	656.0	656.0	656.0	0	0	1	-59.99999999999999	59.99999999999999								
	93	61	0.00457242868733257	0.03418020142564271	0.4077533713723808	657.0	657.0	657.0	0	0	1	-59.99999999999999	59.99999999999999								
	94	116	0.0017476373474070298	0.0225862475770181	2.5475262015797195	1387.0	1387.0	1387.0	0	0	1	-59.99999999999999	59.99999999999999								
	94	149	0.0008477767884357367	0.011571809222622798	1.3597626684780695	1434.0	1434.0	1434.0	0	0	1	-59.99999999999999	59.99999999999999								
	95	110	0.00018765208803769203	0.0017710291671985806	0.02400285282507539	756.0	756.0	756.0	0	0	1	-59.99999999999999	59.99999999999999								
	95	110	0.00018309565764572502	0.0017152461362816408	0.025621291051786402	753.0	753.0	753.0	0	0	1	-59.99999999999999	59.99999999999999								
	95	127	0.005062739744205489	0.047457793328152004	0.6801827127528468	753.0	753.0	753.0	0	0	1	-59.99999999999999	59.99999999999999								
	95	61	0.005640994447898819	0.054073627863782496	0.7772919484522188	764.0	764.0	764.0	0	0	1	-59.99999999999999	59.99999999999999								
	109	23	0.0037399777384898416	0.11522154571351088	0.006938854755392411	275.0	275.0	275.0	1.0	0.0	1	-59.99999999999999	59.99999999999999								
	97	98	0.00244661896547396	0.019350938101233905	0.22834600732551413	679.0	679.0	679.0	0	0	1	-59.99999999999999	59.99999999999999								
	97	109	0.0054815638063252	0.0399409118961464	0.47973428935437484	646.0	646.0	646.0	0	0	1	-59.99999999999999	59.99999999999999								
	98	113	0.00410372099094093	0.029828231756910704	0.36499138505975703	1483.8375219635775	645.0	645.0	0	0	1	-59.99999999999999	59.99999999999999								
	98	141	0.0038084608243499	0.03183420282778101	0.37810937236825903	703.0	703.0	703.0	0	0	1	-59.99999999999999	59.99999999999999								
	98	147	0.00144971191580594	0.014868301946477504	0.19000741341426997	796.0	796.0	796.0	0	0	1	-59.99999999999999	59.99999999999999								
	98	151	0.0016278954856574497	0.0132292583637871	0.157336153255356	691.0	691.0	691.0	0	0	1	-59.99999999999999	59.99999999999999								
	99	111	0.00709601896856702	0.054174033131706496	0.65326785024438	665.0	665.0	665.0	0	0	1	-59.99999999999999	59.99999999999999								
	100	109	0.00166386096210172	0.0135379533045636	0.15520439058789107	691.0	691.0	691.0	0	0	1	-59.99999999999999	59.99999999999999								
	100	114	0.00274414111995976	0.020981657009152704	0.2617178211031481	666.0	666.0	666.0	0	0	1	-59.99999999999999	59.99999999999999								
	100	133	0.00187141090140715	0.021428806004412503	0.27130704536082195	851.0	851.0	851.0	0	0	1	-59.99999999999999	59.99999999999999								
	101	144	0.005964429343834518	0.04615595429384241	0.559919314950723	670.0	670.0	670.0	0	0	1	-59.99999999999999	59.99999999999999								
	102	106	0.000254828323430382	0.002517975235153461	1.2525606660218898	778.0	778.0	778.0	0	0	1	-59.99999999999999	59.99999999999999								
	102	106	0.000271172397340648	0.00264301669002743	1.24495918041561	771.0	771.0	771.0	0	0	1	-59.99999999999999	59.99999999999999								
	103	201	0.0342950132478122	0.09924133636807418	0.0261390999147855	148.0	148.0	148.0	0	0	1	-59.99999999999999	59.99999999999999								
	103	286	0.035639496886978414	0.10653844324564596	0.02406568979042399	151.0	151.0	151.0	0	0	1	-59.99999999999999	59.99999999999999								
	104	135	0.0013382712363200298	0.017440944915344907	0.26543850867785507	919.9999999999999	919.9999999999999	919.9999999999999	0	0	1	-59.99999999999999	59.99999999999999								
	104	1623	0.0036576786413243995	0.044478228680670306	0.6994230854636289	882.0	882.0	882.0	0	0	1	-59.99999999999999	59.99999999999999								
	104	1623	0.00364630651943386	0.044199198991008104	0.7333035897027699	881.0	881.0	881.0	0	0	1	-59.99999999999999	59.99999999999999								
	105	133	0.0003668577104597351	0.00441661813680176	3.330163318504069	877.0	877.0	877.0	0	0	1	-59.99999999999999	59.99999999999999								
	106	61	0.00025530614959993407	0.0030419849197376512	0.0372119472607039	871.0000000000001	871.0000000000001	871.0000000000001	0	0	1	-59.99999999999999	59.99999999999999								
	106	61	0.00026262887000595193	0.0029070965867340594	0.037134825276170895	833.0	833.0	833.0	0	0	1	-59.99999999999999	59.99999999999999								
	107	133	0.0005990839999169109	0.00585149085285217	0.08520547032542988	772.0	772.0	772.0	0	0	1	-59.99999999999999	59.99999999999999								
	107	145	0.00360740342547465	0.033197096485666905	0.514430723322602	745.0	745.0	745.0	0	0	1	-59.99999999999999	59.99999999999999								
	108	144	0.00399604540073648	0.030581321998375908	0.3795588746255081	666.0	666.0	666.0	0	0	1	-59.99999999999999	59.99999999999999								
	108	831	0.0016394406916201095	0.0128891051766779	0.15568176635422692	677.0	677.0	677.0	0	0	1	-59.99999999999999	59.99999999999999								
	110	120	0.0006616731316100336	0.004931310835531909	0.07534584023475649	655.0	655.0	655.0	0	0	1	-59.99999999999999	59.99999999999999								
	110	126	0.0030475391520839203	0.03176800784265111	0.40428603335089985	802.9999999999999	802.9999999999999	802.9999999999999	0	0	1	-59.99999999999999	59.99999999999999								
	110	138	0.005567214432419281	0.04080208764306131	0.5366600638017708	649.0	649.0	649.0	0	0	1	-59.99999999999999	59.99999999999999								
	110	139	0.003376445538480949	0.03559826780126431	0.47936948058143286	809.0	809.0	809.0	0	0	1	-59.99999999999999	59.99999999999999								
	112	133	0.0004984658036660401	0.0052260588949895525	0.07084876054867645	806.0	806.0	806.0	0	0	1	-59.99999999999999	59.99999999999999								
	112	61	0.00048894178866595	0.004779740621322771	0.06421571918618488	773.0	773.0	773.0	0	0	1	-59.99999999999999	59.99999999999999								
	113	141	0.0016177231878188407	0.013075334178902207	0.15598860032670206	688.0	688.0	688.0	0	0	1	-59.99999999999999	59.99999999999999								
	113	144	0.004230393194225061	0.031163470459792307	0.3978532764773349	651.0	651.0	651.0	0	0	1	-59.99999999999999	59.99999999999999								
	113	151	0.00487603953066887	0.037748682541321	0.528233339417093	671.0	671.0	671.0	0	0	1	-59.99999999999999	59.99999999999999								
	113	827	0.0030880695344582204	0.022429178837193205	0.28348333942303405	645.0	645.0	645.0	0	0	1	-59.99999999999999	59.99999999999999								
	114	151	0.004608929471296258	0.03800400496403689	0.46118647054224277	697.0	697.0	697.0	0	0	1	-59.99999999999999	59.99999999999999								
	114	151	0.004585812630360851	0.03577098650301621	0.41855507495459193	674.0	674.0	674.0	0	0	1	-59.99999999999999	59.99999999999999								
	116	149	0.0008832353375784117	0.011167770984761396	1.3441456838160801	1369.0	1369.0	1369.0	0	0	1	-59.99999999999999	59.99999999999999								
	117	145	0.00022335998928956703	0.0021623495207090905	0.032297981452569395	768.0	768.0	768.0	0	0	1	-59.99999999999999	59.99999999999999								
	117	145	0.000238167415531352	0.0023182632682465006	0.0307610085719302	771.0	771.0	771.0	0	0	1	-59.99999999999999	59.99999999999999								
	117	148	0.007106177316955288	0.051405020363783506	0.6380371500890237	644.0	644.0	644.0	0	0	1	-59.99999999999999	59.99999999999999								
	118	61	0.0035206865253672006	0.036645195242716	0.506899248446147	802.9999999999999	802.9999999999999	802.9999999999999	0	0	1	-59.99999999999999	59.99999999999999								
	118	140	0.0011094031405812098	0.012115308408995605	0.16344245562190196	827.0	827.0	827.0	0	0	1	-59.99999999999999	59.99999999999999								
	118	142	0.00020985141811380198	0.0021308087728247006	0.02607113050868731	791.0	791.0	791.0	0	0	1	-59.99999999999999	59.99999999999999								
	119	151	0.0025201892583891702	0.01983479489308781	0.25642106492965905	677.0	677.0	677.0	0	0	1	-59.99999999999999	59.99999999999999								
	120	138	0.005233336294688658	0.03793305422313649	0.4776140188000159	644.0	644.0	644.0	0	0	1	-59.99999999999999	59.99999999999999								
	121	237	0.0007342707045497373	0.0017635611776928397	0.06341918928609089	132.0	132.0	132.0	0	0	1	-59.99999999999999	59.99999999999999								
	122	239	0.0009008754581382962	0.0019385515564050494	0.07174157153103132	124.0	124.0	124.0	0	0	1	-59.99999999999999	59.99999999999999								
	123	236	0.0009037223643902689	0.0019775712276953296	0.07457003090416173	125.0	125.0	125.0	0	0	1	-59.99999999999999	59.99999999999999								
	124	366	0.003942278270581607	0.00910197651868422	0.35368702971906896	129.0	129.0	129.0	0	0	1	-59.99999999999999	59.99999999999999								
	126	139	0.000721468428298831	0.006858697729018521	0.10203571456060696	760.0	760.0	760.0	0	0	1	-59.99999999999999	59.99999999999999								
	126	139	0.0007328506571939221	0.006924745208468291	0.10565240891925098	757.0	757.0	757.0	0	0	1	-59.99999999999999	59.99999999999999								
	126	142	0.00109038195973262	0.010209810531835999	0.152121480317786	753.0	753.0	753.0	0	0	1	-59.99999999999999	59.99999999999999								
	126	146	0.000533160382474959	0.005050116726952881	0.07690113015689928	758.0	758.0	758.0	0	0	1	-59.99999999999999	59.99999999999999								
	127	61	0.000482097479462531	0.0049991164487591016	0.0731080089859739	801.0	801.0	801.0	0	0	1	-59.99999999999999	59.99999999999999								
	128	131	0.0006510614951667379	0.0063578261494319915	0.08881317310842171	772.0	772.0	772.0	0	0	1	-59.99999999999999	59.99999999999999								
	128	131	0.0006804984633834101	0.006824063138660971	0.08404103195147122	785.0	785.0	785.0	0	0	1	-59.99999999999999	59.99999999999999								
	129	231	0.0190887799974158	0.04172849446032199	0.00854633274437673	125.0	125.0	125.0	0	0	1	-59.99999999999999	59.99999999999999								
	129	775	0.0183899826684594	0.050378967693149986	0.01034528192169959	143.0	143.0	143.0	0	0	1	-59.99999999999999	59.99999999999999								
	131	61	0.00093172233903408	0.010179013713213603	0.131859650623836	827.0	827.0	827.0	0	0	1	-59.99999999999999	59.99999999999999								
	131	140	0.00180625766765866	0.0196081123656034	0.241563580367481	824.0	824.0	824.0	0	0	1	-59.99999999999999	59.99999999999999								
	131	142	0.0024711063312795	0.026756174016029612	0.3412631819133651	822.0000000000001	822.0000000000001	822.0000000000001	0	0	1	-59.99999999999999	59.99999999999999								
	132	240	0.050466646081768006	0.13810153952864898	0.02857858604894949	143.0	143.0	143.0	0	0	1	-59.99999999999999	59.99999999999999								
	132	387	0.0341483374678809	0.08629042608339335	0.01829617928587369	136.0	136.0	136.0	0	0	1	-59.99999999999999	59.99999999999999								
	133	145	0.00414311490017199	0.03987566436200871	0.6107460691964353	765.0	765.0	765.0	0	0	1	-59.99999999999999	59.99999999999999								
	133	557	0.00041508565774876587	0.0033696280453614906	2.457417634188569	690.0	690.0	690.0	0	0	1	-59.99999999999999	59.99999999999999								
	61	143	0.0006007844828772356	0.0060861772845340915	0.0844447730286107	790.0	790.0	790.0	0	0	1	-59.99999999999999	59.99999999999999								
	139	146	0.000260147637901828	0.00249511185301747	0.034025754706913096	764.0	764.0	764.0	0	0	1	-59.99999999999999	59.99999999999999								
	141	151	0.006103511092722421	0.04747930508131442	0.531508752820017	673.0	673.0	673.0	0	0	1	-59.99999999999999	59.99999999999999								
	141	827	0.00174801820714213	0.0147438467117557	0.17414501094723597	707.0	707.0	707.0	0	0	1	-59.99999999999999	59.99999999999999								
	148	150	0.00470323144650012	0.035423657524215106	0.4320892225623969	660.0	660.0	660.0	0	0	1	-59.99999999999999	59.99999999999999								
	152	305	0.08482580144515732	0.21576227856217894	0.04793308662138878	137.0	137.0	137.0	0	0	1	-59.99999999999999	59.99999999999999								
	152	324	0.09216109331963636	0.252731762580634	0.053216856760745904	143.0	143.0	143.0	0	0	1	-59.99999999999999	59.99999999999999								
	152	328	0.14660060473484895	0.4336830756503617	0.08441986633040935	150.0	150.0	150.0	0	0	1	-59.99999999999999	59.99999999999999								
	152	27	0.0816180064428365	0.24852212814153588	0.0498730454116506	153.0	153.0	153.0	0	0	1	-59.99999999999999	59.99999999999999								
	327	152	0.12212704062114056	0.38703269725507605	0.0705996104013375	78.0	78.0	78.0	1.0552410552410554	0.0	1	-59.99999999999999	59.99999999999999								
	157	266	0.0073481386190014895	0.027084312552027392	0.007304179940303788	171.0	171.0	171.0	0	0	1	-59.99999999999999	59.99999999999999								
	157	328	0.06430236821700819	0.17978284463658892	0.039188245123857594	145.0	145.0	145.0	0	0	1	-59.99999999999999	59.99999999999999								
	157	439	0.013764156946195304	0.05547133659962558	0.013970784274740099	181.0	181.0	181.0	0	0	1	-59.99999999999999	59.99999999999999								
	157	27	0.033516937474636396	0.09253534544164307	0.019445091573066103	144.0	144.0	144.0	0	0	1	-59.99999999999999	59.99999999999999								
	248	300	0.00232129511072766	0.023596613976266195	0.00944844518988952	317.0	317.0	317.0	0	0	1	-59.99999999999999	59.99999999999999								
	248	440	0.03910356974238528	0.13724645487025394	0.027509415414333296	166.0	166.0	166.0	0	0	1	-59.99999999999999	59.99999999999999								
	248	440	0.0391109898971301	0.13332004798937094	0.028704409679621498	163.0	163.0	163.0	0	0	1	-59.99999999999999	59.99999999999999								
	248	299	0.0025969930342533594	0.02487079684794879	0.0100089951337874	306.0	306.0	306.0	0	0	1	-59.99999999999999	59.99999999999999								
	159	293	0.03849524709378881	0.10315015862777101	0.021005102677311704	141.0	141.0	141.0	0	0	1	-59.99999999999999	59.99999999999999								
	159	450	0.00504658115445636	0.04844925607439128	0.007345125751487441	306.0	306.0	306.0	0	0	1	-59.99999999999999	59.99999999999999								
	159	450	0.004984208895359191	0.0500184619898302	0.006879821772045459	314.0	314.0	314.0	0	0	1	-59.99999999999999	59.99999999999999								
	159	463	0.0011283213729495198	0.027333370479108793	0.0015231814300268895	537.0	537.0	537.0	0	0	1	-59.99999999999999	59.99999999999999								
	159	463	0.001465341174695639	0.028810969831753998	0.001940103144571188	473.00000000000006	473.00000000000006	473.00000000000006	0	0	1	-59.99999999999999	59.99999999999999								
	160	204	0.03713735064702341	0.1660244527816399	0.439467819973268	320.0	320.0	320.0	0	0	1	-59.99999999999999	59.99999999999999								
	161	285	0.011195397630292002	0.03268669014166569	0.007303788624471045	149.0	149.0	149.0	0	0	1	-59.99999999999999	59.99999999999999								
	161	310	0.028279031073711818	0.12718387141320894	0.030635143730044403	193.0	193.0	193.0	0	0	1	-59.99999999999999	59.99999999999999								
	161	488	0.017746030093096197	0.08264867896333336	0.019345907812053285	197.0	197.0	197.0	0	0	1	-59.99999999999999	59.99999999999999								
	162	214	0.0006957378639131781	0.005779441676177549	0.16339648452316902	280.0	280.0	280.0	0	0	1	-59.99999999999999	59.99999999999999								
	162	156	0.00051902065923214	0.004381330450064218	0.11307902935775599	283.0	283.0	283.0	0	0	1	-59.99999999999999	59.99999999999999								
	162	517	0.000297132604429498	0.002356686860172079	0.06092698699716479	273.0	273.0	273.0	0	0	1	-59.99999999999999	59.99999999999999								
	162	518	0.000294323009653017	0.002353190984619779	0.06092686202386017	274.0	274.0	274.0	0	0	1	-59.99999999999999	59.99999999999999								
	162	156	0.00038596826991066293	0.004704185158237808	0.05546157770449669	354.0	354.0	354.0	0	0	1	-59.99999999999999	59.99999999999999								
...